405
Cu 0 0 0 12
Cu 0 2.55974 0 12
Cu 0 -2.55974 0 12
Cu 2.55974 0 0 12
Cu -2.55974 0 0 12
Cu 1.27985 1.27985 1.81 12
Cu -1.27985 1.27985 1.81 12
Cu 1.27985 -1.27985 1.81 12
Cu -1.27985 -1.27985 1.81 12
Cu 1.27985 1.27985 -1.81 12
Cu -1.27985 1.27985 -1.81 12
Cu 1.27985 -1.27985 -1.81 12
Cu -1.27985 -1.27985 -1.81 12
Cu 2.55974 2.55974 0 12
Cu -2.55974 2.55974 0 12
Cu -2.55974 -2.55974 0 12
Cu 2.55974 -2.55974 0 12
Cu 0 0 3.62 12
Cu 0 0 -3.62 12
Cu 0 5.11944 0 12
Cu 1.27985 3.83959 1.81 12
Cu -1.27985 3.83959 1.81 12
Cu 1.27985 3.83959 -1.81 12
Cu -1.27985 3.83959 -1.81 12
Cu 2.55974 5.11944 0 12
Cu -2.55974 5.11944 0 12
Cu 0 2.55974 3.62 12
Cu 0 2.55974 -3.62 12
Cu 0 -5.11944 0 12
Cu 1.27985 -3.83959 1.81 12
Cu -1.27985 -3.83959 1.81 12
Cu 1.27985 -3.83959 -1.81 12
Ag -1.27985 -3.83959 -1.81 12
Cu -2.55974 -5.11944 0 12
Cu 2.55974 -5.11944 0 12
Cu 0 -2.55974 3.62 12
Cu 0 -2.55974 -3.62 12
Cu 5.11944 0 0 12
Cu 3.83959 1.27985 1.81 12
Cu 3.83959 -1.27985 1.81 12
Cu 3.83959 1.27985 -1.81 12
Cu 3.83959 -1.27985 -1.81 12
Cu 5.11944 2.55974 0 12
Cu 5.11944 -2.55974 0 12
Cu 2.55974 0 3.62 12
Cu 2.55974 0 -3.62 12
Cu -5.11944 0 0 12
Cu -3.83959 1.27985 1.81 12
Cu -3.83959 -1.27985 1.81 12
Cu -3.83959 1.27985 -1.81 12
Cu -3.83959 -1.27985 -1.81 12
Cu -5.11944 2.55974 0 12
Cu -5.11944 -2.55974 0 12
Cu -2.55974 0 3.62 12
Cu -2.55974 0 -3.62 12
Cu 2.55974 2.55974 3.62 12
Cu 3.83959 3.83959 1.81 12
Cu 1.27985 1.27985 5.43 12
Cu -2.55974 2.55974 3.62 12
Cu -3.83959 3.83959 1.81 12
Cu -1.27985 1.27985 5.43 12
Cu 2.55974 -2.55974 3.62 12
Cu 3.83959 -3.83959 1.81 12
Cu 1.27985 -1.27985 5.43 12
Cu -2.55974 -2.55974 3.62 12
Cu -3.83959 -3.83959 1.81 12
Cu -1.27985 -1.27985 5.43 12
Cu 2.55974 2.55974 -3.62 12
Cu 3.83959 3.83959 -1.81 12
Cu 1.27985 1.27985 -5.43 12
Cu -2.55974 2.55974 -3.62 12
Cu -3.83959 3.83959 -1.81 12
Cu -1.27985 1.27985 -5.43 12
Cu 2.55974 -2.55974 -3.62 12
Cu 3.83959 -3.83959 -1.81 12
Cu 1.27985 -1.27985 -5.43 12
Cu -2.55974 -2.55974 -3.62 12
Cu -3.83959 -3.83959 -1.81 12
Cu -1.27985 -1.27985 -5.43 12
Cu 5.11944 5.11944 0 12
Cu -5.11944 5.11944 0 12
Cu -5.11944 -5.11944 0 12
Cu 5.11944 -5.11944 0 12
Cu 0 0 7.24 12
Cu 0 0 -7.24 12
Cu 0 7.67918 0 12
Ag 1.27985 6.39933 1.81 12
Cu -1.27985 6.39933 1.81 12
Ag 1.27985 6.39933 -1.81 12
Cu -1.27985 6.39933 -1.81 12
Cu 2.55974 7.67918 0 12
Cu -2.55974 7.67918 0 12
Cu 0 5.11944 3.62 12
Cu 0 5.11944 -3.62 12
Cu 2.55974 5.11944 3.62 12
Cu 3.83959 6.39933 1.81 12
Cu 1.27985 3.83959 5.43 12
Cu -2.55974 5.11944 3.62 12
Cu -3.83959 6.39933 1.81 12
Cu -1.27985 3.83959 5.43 12
Cu 2.55974 5.11944 -3.62 12
Cu 3.83959 6.39933 -1.81 12
Cu 1.27985 3.83959 -5.43 12
Cu -2.55974 5.11944 -3.62 12
Ag -3.83959 6.39933 -1.81 12
Cu -1.27985 3.83959 -5.43 12
Ag 5.11944 7.67918 0 8
Ag -5.11944 7.67918 0 8
Cu 0 2.55974 7.24 12
Cu 0 2.55974 -7.24 12
Cu 0 -7.67918 0 12
Cu 1.27985 -6.39933 1.81 12
Cu -1.27985 -6.39933 1.81 12
Cu 1.27985 -6.39933 -1.81 12
Cu -1.27985 -6.39933 -1.81 12
Cu -2.55974 -7.67918 0 12
Cu 2.55974 -7.67918 0 12
Cu 0 -5.11944 3.62 12
Cu 0 -5.11944 -3.62 12
Cu 2.55974 -5.11944 3.62 12
Cu 3.83959 -6.39933 1.81 12
Cu 1.27985 -3.83959 5.43 12
Cu -2.55974 -5.11944 3.62 12
Cu -3.83959 -6.39933 1.81 12
Cu -1.27985 -3.83959 5.43 12
Cu 2.55974 -5.11944 -3.62 12
Cu 3.83959 -6.39933 -1.81 12
Cu 1.27985 -3.83959 -5.43 12
Cu -2.55974 -5.11944 -3.62 12
Cu -3.83959 -6.39933 -1.81 12
Cu -1.27985 -3.83959 -5.43 12
Ag -5.11944 -7.67918 0 8
Ag 5.11944 -7.67918 0 8
Cu 0 -2.55974 7.24 12
Cu 0 -2.55974 -7.24 12
Cu 7.67918 0 0 12
Cu 6.39933 1.27985 1.81 12
Cu 6.39933 -1.27985 1.81 12
Cu 6.39933 1.27985 -1.81 12
Cu 6.39933 -1.27985 -1.81 12
Cu 7.67918 2.55974 0 12
Cu 7.67918 -2.55974 0 12
Cu 5.11944 0 3.62 12
Cu 5.11944 0 -3.62 12
Cu 5.11944 2.55974 3.62 12
Cu 6.39933 3.83959 1.81 12
Cu 3.83959 1.27985 5.43 12
Cu 5.11944 -2.55974 3.62 12
Cu 6.39933 -3.83959 1.81 12
Cu 3.83959 -1.27985 5.43 12
Cu 5.11944 2.55974 -3.62 12
Cu 6.39933 3.83959 -1.81 12
Cu 3.83959 1.27985 -5.43 12
Cu 5.11944 -2.55974 -3.62 12
Cu 6.39933 -3.83959 -1.81 12
Cu 3.83959 -1.27985 -5.43 12
Cu 7.67918 5.11944 0 8
Ag 7.67918 -5.11944 0 8
Cu 2.55974 0 7.24 12
Ag 2.55974 0 -7.24 12
Cu -7.67918 0 0 12
Cu -6.39933 1.27985 1.81 12
Cu -6.39933 -1.27985 1.81 12
Cu -6.39933 1.27985 -1.81 12
Cu -6.39933 -1.27985 -1.81 12
Cu -7.67918 2.55974 0 12
Cu -7.67918 -2.55974 0 12
Cu -5.11944 0 3.62 12
Cu -5.11944 0 -3.62 12
Cu -5.11944 2.55974 3.62 12
Cu -6.39933 3.83959 1.81 12
Cu -3.83959 1.27985 5.43 12
Cu -5.11944 -2.55974 3.62 12
Cu -6.39933 -3.83959 1.81 12
Cu -3.83959 -1.27985 5.43 12
Cu -5.11944 2.55974 -3.62 12
Cu -6.39933 3.83959 -1.81 12
Cu -3.83959 1.27985 -5.43 12
Cu -5.11944 -2.55974 -3.62 12
Cu -6.39933 -3.83959 -1.81 12
Cu -3.83959 -1.27985 -5.43 12
Ag -7.67918 5.11944 0 8
Ag -7.67918 -5.11944 0 8
Cu -2.55974 0 7.24 12
Cu -2.55974 0 -7.24 12
Cu 3.83959 3.83959 5.43 12
Cu 5.11944 5.11944 3.62 12
Ag 2.55974 2.55974 7.24 12
Ag 6.39933 6.39933 1.81 8
Ag 1.27985 1.27985 9.05 8
Cu -3.83959 3.83959 5.43 12
Cu -5.11944 5.11944 3.62 12
Cu -2.55974 2.55974 7.24 12
Ag -6.39933 6.39933 1.81 8
Ag -1.27985 1.27985 9.05 8
Cu 3.83959 -3.83959 5.43 12
Cu 5.11944 -5.11944 3.62 12
Cu 2.55974 -2.55974 7.24 12
Ag 6.39933 -6.39933 1.81 8
Ag 1.27985 -1.27985 9.05 8
Cu -3.83959 -3.83959 5.43 12
Cu -5.11944 -5.11944 3.62 12
Cu -2.55974 -2.55974 7.24 12
Ag -6.39933 -6.39933 1.81 8
Ag -1.27985 -1.27985 9.05 8
Cu 3.83959 3.83959 -5.43 12
Cu 5.11944 5.11944 -3.62 12
Cu 2.55974 2.55974 -7.24 12
Ag 6.39933 6.39933 -1.81 8
Ag 1.27985 1.27985 -9.05 8
Cu -3.83959 3.83959 -5.43 12
Cu -5.11944 5.11944 -3.62 12
Ag -2.55974 2.55974 -7.24 12
Ag -6.39933 6.39933 -1.81 8
Ag -1.27985 1.27985 -9.05 8
Cu 3.83959 -3.83959 -5.43 12
Cu 5.11944 -5.11944 -3.62 12
Cu 2.55974 -2.55974 -7.24 12
Ag 6.39933 -6.39933 -1.81 8
Ag 1.27985 -1.27985 -9.05 8
Cu -3.83959 -3.83959 -5.43 12
Cu -5.11944 -5.11944 -3.62 12
Cu -2.55974 -2.55974 -7.24 12
Ag -6.39933 -6.39933 -1.81 8
Ag -1.27985 -1.27985 -9.05 8
Ag 0 10.2389 0 7
Ag 1.27985 8.95903 1.81 9
Ag -1.27985 8.95903 1.81 9
Ag 1.27985 8.95903 -1.81 9
Ag -1.27985 8.95903 -1.81 9
Ag 2.55974 10.2389 0 6
Ag -2.55974 10.2389 0 6
Ag 0 7.67918 3.62 9
Ag 0 7.67918 -3.62 9
Cu 2.55974 7.67918 3.62 9
Ag 3.83959 8.95903 1.81 7
Ag 1.27985 6.39933 5.43 9
Ag -2.55974 7.67918 3.62 9
Ag -3.83959 8.95903 1.81 7
Ag -1.27985 6.39933 5.43 9
Ag 2.55974 7.67918 -3.62 9
Ag 3.83959 8.95903 -1.81 7
Ag 1.27985 6.39933 -5.43 9
Ag -2.55974 7.67918 -3.62 9
Ag -3.83959 8.95903 -1.81 7
Ag -1.27985 6.39933 -5.43 9
Ag 0 5.11944 7.24 9
Ag 0 5.11944 -7.24 9
Ag 3.83959 6.39933 5.43 9
Ag 5.11944 7.67918 3.62 7
Ag 2.55974 5.11944 7.24 9
Ag 1.27985 3.83959 9.05 7
Ag -3.83959 6.39933 5.43 9
Ag -5.11944 7.67918 3.62 7
Cu -2.55974 5.11944 7.24 9
Ag -1.27985 3.83959 9.05 7
Cu 3.83959 6.39933 -5.43 9
Ag 5.11944 7.67918 -3.62 7
Cu 2.55974 5.11944 -7.24 9
Ag 1.27985 3.83959 -9.05 7
Ag -3.83959 6.39933 -5.43 9
Ag -5.11944 7.67918 -3.62 7
Ag -2.55974 5.11944 -7.24 9
Ag -1.27985 3.83959 -9.05 7
Ag 0 -10.2389 0 7
Ag 1.27985 -8.95903 1.81 9
Ag -1.27985 -8.95903 1.81 9
Ag 1.27985 -8.95903 -1.81 9
Ag -1.27985 -8.95903 -1.81 9
Ag -2.55974 -10.2389 0 6
Ag 2.55974 -10.2389 0 6
Ag 0 -7.67918 3.62 9
Cu 0 -7.67918 -3.62 9
Cu 2.55974 -7.67918 3.62 9
Ag 3.83959 -8.95903 1.81 7
Cu 1.27985 -6.39933 5.43 9
Ag -2.55974 -7.67918 3.62 9
Ag -3.83959 -8.95903 1.81 7
Ag -1.27985 -6.39933 5.43 9
Ag 2.55974 -7.67918 -3.62 9
Ag 3.83959 -8.95903 -1.81 7
Ag 1.27985 -6.39933 -5.43 9
Cu -2.55974 -7.67918 -3.62 9
Ag -3.83959 -8.95903 -1.81 7
Ag -1.27985 -6.39933 -5.43 9
Ag 0 -5.11944 7.24 9
Ag 0 -5.11944 -7.24 9
Ag 3.83959 -6.39933 5.43 9
Ag 5.11944 -7.67918 3.62 7
Cu 2.55974 -5.11944 7.24 9
Ag 1.27985 -3.83959 9.05 7
Ag -3.83959 -6.39933 5.43 9
Ag -5.11944 -7.67918 3.62 7
Ag -2.55974 -5.11944 7.24 9
Ag -1.27985 -3.83959 9.05 7
Ag 3.83959 -6.39933 -5.43 9
Ag 5.11944 -7.67918 -3.62 7
Ag 2.55974 -5.11944 -7.24 9
Ag 1.27985 -3.83959 -9.05 7
Ag -3.83959 -6.39933 -5.43 9
Ag -5.11944 -7.67918 -3.62 7
Ag -2.55974 -5.11944 -7.24 9
Ag -1.27985 -3.83959 -9.05 7
Ag 10.2389 0 0 7
Ag 8.95903 1.27985 1.81 9
Ag 8.95903 -1.27985 1.81 9
Ag 8.95903 1.27985 -1.81 9
Ag 8.95903 -1.27985 -1.81 9
Ag 10.2389 2.55974 0 6
Ag 10.2389 -2.55974 0 6
Ag 7.67918 0 3.62 9
Ag 7.67918 0 -3.62 9
Ag 7.67918 2.55974 3.62 9
Ag 8.95903 3.83959 1.81 7
Ag 6.39933 1.27985 5.43 9
Ag 7.67918 -2.55974 3.62 9
Ag 8.95903 -3.83959 1.81 7
Cu 6.39933 -1.27985 5.43 9
Ag 7.67918 2.55974 -3.62 9
Ag 8.95903 3.83959 -1.81 7
Ag 6.39933 1.27985 -5.43 9
Ag 7.67918 -2.55974 -3.62 9
Ag 8.95903 -3.83959 -1.81 7
Ag 6.39933 -1.27985 -5.43 9
Ag 5.11944 0 7.24 9
Ag 5.11944 0 -7.24 9
Ag 6.39933 3.83959 5.43 9
Ag 7.67918 5.11944 3.62 7
Cu 5.11944 2.55974 7.24 9
Ag 3.83959 1.27985 9.05 7
Cu 6.39933 -3.83959 5.43 9
Ag 7.67918 -5.11944 3.62 7
Ag 5.11944 -2.55974 7.24 9
Ag 3.83959 -1.27985 9.05 7
Ag 6.39933 3.83959 -5.43 9
Ag 7.67918 5.11944 -3.62 7
Ag 5.11944 2.55974 -7.24 9
Ag 3.83959 1.27985 -9.05 7
Ag 6.39933 -3.83959 -5.43 9
Ag 7.67918 -5.11944 -3.62 7
Cu 5.11944 -2.55974 -7.24 9
Ag 3.83959 -1.27985 -9.05 7
Ag -10.2389 0 0 7
Ag -8.95903 1.27985 1.81 9
Ag -8.95903 -1.27985 1.81 9
Ag -8.95903 1.27985 -1.81 9
Ag -8.95903 -1.27985 -1.81 9
Ag -10.2389 2.55974 0 6
Ag -10.2389 -2.55974 0 6
Ag -7.67918 0 3.62 9
Ag -7.67918 0 -3.62 9
Ag -7.67918 2.55974 3.62 9
Ag -8.95903 3.83959 1.81 7
Ag -6.39933 1.27985 5.43 9
Ag -7.67918 -2.55974 3.62 9
Ag -8.95903 -3.83959 1.81 7
Ag -6.39933 -1.27985 5.43 9
Ag -7.67918 2.55974 -3.62 9
Ag -8.95903 3.83959 -1.81 7
Ag -6.39933 1.27985 -5.43 9
Ag -7.67918 -2.55974 -3.62 9
Ag -8.95903 -3.83959 -1.81 7
Ag -6.39933 -1.27985 -5.43 9
Ag -5.11944 0 7.24 9
Ag -5.11944 0 -7.24 9
Ag -6.39933 3.83959 5.43 9
Ag -7.67918 5.11944 3.62 7
Ag -5.11944 2.55974 7.24 9
Ag -3.83959 1.27985 9.05 7
Ag -6.39933 -3.83959 5.43 9
Ag -7.67918 -5.11944 3.62 7
Ag -5.11944 -2.55974 7.24 9
Ag -3.83959 -1.27985 9.05 7
Ag -6.39933 3.83959 -5.43 9
Ag -7.67918 5.11944 -3.62 7
Ag -5.11944 2.55974 -7.24 9
Ag -3.83959 1.27985 -9.05 7
Ag -6.39933 -3.83959 -5.43 9
Ag -7.67918 -5.11944 -3.62 7
Ag -5.11944 -2.55974 -7.24 9
Ag -3.83959 -1.27985 -9.05 7
Ag 5.11944 5.11944 7.24 7
Ag 6.39933 6.39933 5.43 6
Ag 3.83959 3.83959 9.05 6
Ag -5.11944 5.11944 7.24 7
Ag -6.39933 6.39933 5.43 6
Cu -3.83959 3.83959 9.05 6
Ag 5.11944 -5.11944 7.24 7
Ag 6.39933 -6.39933 5.43 6
Ag 3.83959 -3.83959 9.05 6
Ag -5.11944 -5.11944 7.24 7
Ag -6.39933 -6.39933 5.43 6
Ag -3.83959 -3.83959 9.05 6
Ag 5.11944 5.11944 -7.24 7
Ag 6.39933 6.39933 -5.43 6
Ag 3.83959 3.83959 -9.05 6
Ag -5.11944 5.11944 -7.24 7
Ag -6.39933 6.39933 -5.43 6
Ag -3.83959 3.83959 -9.05 6
Ag 5.11944 -5.11944 -7.24 7
Ag 6.39933 -6.39933 -5.43 6
Ag 3.83959 -3.83959 -9.05 6
Ag -5.11944 -5.11944 -7.24 7
Ag -6.39933 -6.39933 -5.43 6
Cu -3.83959 -3.83959 -9.05 6
